/*--------------------------------*- C++ -*----------------------------------*\
| =========                 |                                                 |
| \\      /  F ield         | OpenFOAM: The Open Source CFD Toolbox           |
|  \\    /   O peration     | Version:  5.x                                   |
|   \\  /    A nd           | Web:      www.OpenFOAM.org                      |
|    \\/     M anipulation  |                                                 |
\*---------------------------------------------------------------------------*/
FoamFile
{
    version     2.0;
    format      ascii;
    class       dictionary;
    object      fvSchemes;
}
// * * * * * * * * * * * * * * * * * * * * * * * * * * * * * * * * * * * * * //

ddtSchemes
{
    default         steadyState;
}

gradSchemes
{

    grad(p)         cellLimited Gauss linear 0;
    grad(U)         cellLimited Gauss linear 0;
    default         cellLimited Gauss linear 1;

}

divSchemes
{
    default         none;

    div(phi,U)      bounded Gauss linearUpwind grad(U);

    div(phi,k)      bounded Gauss linearUpwind default;
    div(phi,omega)  bounded Gauss linearUpwind default;

    div((nuEff*dev2(T(grad(U))))) Gauss linear;
}

laplacianSchemes
{
      default         Gauss linear limited 1;
}

interpolationSchemes
{
    default         linear;
}

snGradSchemes
{
    default         limited 1;
}

wallDist
{
    method	    meshWave;

/*
Poisson
advectionDiffusion
meshWave
*/
}

// ************************************************************************* //
